=== Omnipod Scan started Fri Apr 03 18:14:15 GMT+02:00 2026 ===

[18:14:15.522] Device: SugarPixel-Oben  [78:1C:3C:EF:B4:4E]
RSSI: -63 dBm
Raw AD (62 bytes):
  02 01 06 10 09 53 75 67 61 72 50 69 78 65 6C 2D
  4F 62 65 6E 00 00 00 00 00 00 00 00 00 00 00 00
  00 00 00 00 00 00 00 00 00 00 00 00 00 00 00 00
  00 00 00 00 00 00 00 00 00 00 00 00 00 00
AD Structures:
  [type=0x01 len=2] Flags: 06
  [type=0x09 len=16] Complete Name: 53 75 67 61 72 50 69 78 65 6C 2D 4F 62 65 6E


[18:14:15.541] Device: (no name)  [07:62:D5:04:81:13]
RSSI: -52 dBm
Manufacturer Data:
  Company ID: 0x0006 (6)
  Data (27 bytes): 01 09 20 22 B2 DF 40 0E 28 B9 F0 13 1C 5E 7F D9
  72 CF 6E F3 E9 07 CC 91 E6 07 B8
Raw AD (62 bytes):
  1E FF 06 00 01 09 20 22 B2 DF 40 0E 28 B9 F0 13
  1C 5E 7F D9 72 CF 6E F3 E9 07 CC 91 E6 07 B8 00
  00 00 00 00 00 00 00 00 00 00 00 00 00 00 00 00
  00 00 00 00 00 00 00 00 00 00 00 00 00 00
AD Structures:
  [type=0xFF len=30] Manufacturer Data: 06 00 01 09 20 22 B2 DF 40 0E 28 B9 F0 13 1C 5E
  7F D9 72 CF 6E F3 E9 07 CC 91 E6 07 B8


[18:14:15.574] Device: (no name)  [24:4B:03:94:AD:A7]
RSSI: -96 dBm
Manufacturer Data:
  Company ID: 0x0075 (117)
  Data (24 bytes): 42 04 01 80 8E 24 4B 03 94 AD A7 26 4B 03 35 28
  6B 01 00 00 00 00 00 00
Raw AD (62 bytes):
  1B FF 75 00 42 04 01 80 8E 24 4B 03 94 AD A7 26
  4B 03 35 28 6B 01 00 00 00 00 00 00 00 00 00 00
  00 00 00 00 00 00 00 00 00 00 00 00 00 00 00 00
  00 00 00 00 00 00 00 00 00 00 00 00 00 00
AD Structures:
  [type=0xFF len=27] Manufacturer Data: 75 00 42 04 01 80 8E 24 4B 03 94 AD A7 26 4B 03
  35 28 6B 01 00 00 00 00 00 00


[18:14:15.603] Device: (no name)  [53:B7:BC:75:66:66]
RSSI: -71 dBm
Manufacturer Data:
  Company ID: 0x004C (76)
  Data (8 bytes): 10 06 3E 1A E1 DF 8E 4C
Raw AD (62 bytes):
  02 01 1A 02 0A 0C 0B FF 4C 00 10 06 3E 1A E1 DF
  8E 4C 00 00 00 00 00 00 00 00 00 00 00 00 00 00
  00 00 00 00 00 00 00 00 00 00 00 00 00 00 00 00
  00 00 00 00 00 00 00 00 00 00 00 00 00 00
AD Structures:
  [type=0x01 len=2] Flags: 1A
  [type=0x0A len=2] Type 10: 0C
  [type=0xFF len=11] Manufacturer Data: 4C 00 10 06 3E 1A E1 DF 8E 4C


[18:14:15.613] Device: (no name)  [4E:F1:26:36:37:7C]
RSSI: -80 dBm
Manufacturer Data:
  Company ID: 0x004C (76)
  Data (25 bytes): 10 06 75 16 EE E4 D7 F2 01 00 00 00 00 00 00 00
  00 00 00 00 00 80 00 00 00
Raw AD (62 bytes):
  02 01 1A 02 0A 0C 0B FF 4C 00 10 06 75 16 EE E4
  D7 F2 14 FF 4C 00 01 00 00 00 00 00 00 00 00 00
  00 00 00 80 00 00 00 00 00 00 00 00 00 00 00 00
  00 00 00 00 00 00 00 00 00 00 00 00 00 00
AD Structures:
  [type=0x01 len=2] Flags: 1A
  [type=0x0A len=2] Type 10: 0C
  [type=0xFF len=11] Manufacturer Data: 4C 00 10 06 75 16 EE E4 D7 F2
  [type=0xFF len=20] Manufacturer Data: 4C 00 01 00 00 00 00 00 00 00 00 00 00 00 00 80
  00 00 00


[18:14:15.634] Device: (no name)  [4E:B4:B1:36:13:97]
RSSI: -95 dBm
Manufacturer Data:
  Company ID: 0x004C (76)
  Data (20 bytes): 09 08 13 E2 C0 A8 01 91 1B 58 16 08 00 8B C8 C6
  60 B2 20 C5
Raw AD (62 bytes):
  02 01 1A 17 FF 4C 00 09 08 13 E2 C0 A8 01 91 1B
  58 16 08 00 8B C8 C6 60 B2 20 C5 00 00 00 00 00
  00 00 00 00 00 00 00 00 00 00 00 00 00 00 00 00
  00 00 00 00 00 00 00 00 00 00 00 00 00 00
AD Structures:
  [type=0x01 len=2] Flags: 1A
  [type=0xFF len=23] Manufacturer Data: 4C 00 09 08 13 E2 C0 A8 01 91 1B 58 16 08 00 8B
  C8 C6 60 B2 20 C5


[18:14:16.947] Device: GBK_H61A2_B3DB  [D4:AD:FC:6C:B3:DB]
RSSI: -85 dBm
Manufacturer Data:
  Company ID: 0x8802 (34818)
  Data (5 bytes): EC 00 02 01 01
Raw AD (62 bytes):
  0F 09 47 42 4B 5F 48 36 31 41 32 5F 42 33 44 42
  08 FF 02 88 EC 00 02 01 01 02 01 05 0F 09 47 42
  4B 5F 48 36 31 41 32 5F 42 33 44 42 00 00 00 00
  00 00 00 00 00 00 00 00 00 00 00 00 00 00
AD Structures:
  [type=0x09 len=15] Complete Name: 47 42 4B 5F 48 36 31 41 32 5F 42 33 44 42
  [type=0xFF len=8] Manufacturer Data: 02 88 EC 00 02 01 01
  [type=0x01 len=2] Flags: 05
  [type=0x09 len=15] Complete Name: 47 42 4B 5F 48 36 31 41 32 5F 42 33 44 42


[18:14:16.998] Device: (no name)  [F0:B3:EC:6B:AE:C9]
RSSI: -87 dBm
Manufacturer Data:
  Company ID: 0x004C (76)
  Data (7 bytes): 10 05 08 14 6E 29 60
Raw AD (62 bytes):
  02 01 1A 02 0A 0C 0A FF 4C 00 10 05 08 14 6E 29
  60 00 00 00 00 00 00 00 00 00 00 00 00 00 00 00
  00 00 00 00 00 00 00 00 00 00 00 00 00 00 00 00
  00 00 00 00 00 00 00 00 00 00 00 00 00 00
AD Structures:
  [type=0x01 len=2] Flags: 1A
  [type=0x0A len=2] Type 10: 0C
  [type=0xFF len=10] Manufacturer Data: 4C 00 10 05 08 14 6E 29 60


[18:14:17.001] Device: (no name)  [69:B7:0D:5A:2E:CC]
RSSI: -97 dBm
Manufacturer Data:
  Company ID: 0x004C (76)
  Data (24 bytes): 0C 0E 00 28 2A BB 09 61 8B 40 C2 DD C6 BA CB C8
  10 06 4B 1D 4D BB ED 48
Raw AD (62 bytes):
  02 01 1A 1B FF 4C 00 0C 0E 00 28 2A BB 09 61 8B
  40 C2 DD C6 BA CB C8 10 06 4B 1D 4D BB ED 48 00
  00 00 00 00 00 00 00 00 00 00 00 00 00 00 00 00
  00 00 00 00 00 00 00 00 00 00 00 00 00 00
AD Structures:
  [type=0x01 len=2] Flags: 1A
  [type=0xFF len=27] Manufacturer Data: 4C 00 0C 0E 00 28 2A BB 09 61 8B 40 C2 DD C6 BA
  CB C8 10 06 4B 1D 4D BB ED 48


[18:14:17.002] Device: (no name)  [4E:3A:EB:8B:4D:A1]
RSSI: -89 dBm
Manufacturer Data:
  Company ID: 0x004C (76)
  Data (7 bytes): 10 05 01 18 D4 C6 B9
Raw AD (62 bytes):
  02 01 1A 02 0A 11 0A FF 4C 00 10 05 01 18 D4 C6
  B9 00 00 00 00 00 00 00 00 00 00 00 00 00 00 00
  00 00 00 00 00 00 00 00 00 00 00 00 00 00 00 00
  00 00 00 00 00 00 00 00 00 00 00 00 00 00
AD Structures:
  [type=0x01 len=2] Flags: 1A
  [type=0x0A len=2] Type 10: 11
  [type=0xFF len=10] Manufacturer Data: 4C 00 10 05 01 18 D4 C6 B9


[18:14:17.050] Device: (no name)  [7C:1F:39:C5:30:2A]
RSSI: -96 dBm
Manufacturer Data:
  Company ID: 0x004C (76)
  Data (24 bytes): 0C 0E 00 28 2A BB 09 61 8B 40 C2 DD C6 BA CB C8
  10 06 4B 1D 4D BB ED 48
Raw AD (62 bytes):
  02 01 1A 1B FF 4C 00 0C 0E 00 28 2A BB 09 61 8B
  40 C2 DD C6 BA CB C8 10 06 4B 1D 4D BB ED 48 00
  00 00 00 00 00 00 00 00 00 00 00 00 00 00 00 00
  00 00 00 00 00 00 00 00 00 00 00 00 00 00
AD Structures:
  [type=0x01 len=2] Flags: 1A
  [type=0xFF len=27] Manufacturer Data: 4C 00 0C 0E 00 28 2A BB 09 61 8B 40 C2 DD C6 BA
  CB C8 10 06 4B 1D 4D BB ED 48


[18:14:17.051] Device: Govee_H6072_388C  [C2:36:39:34:38:8C]
RSSI: -94 dBm
Manufacturer Data:
  Company ID: 0x8802 (34818)
  Data (5 bytes): EC 00 02 01 01
Raw AD (62 bytes):
  02 01 06 11 09 47 6F 76 65 65 5F 48 36 30 37 32
  5F 33 38 38 43 08 FF 02 88 EC 00 02 01 01 11 09
  47 6F 76 65 65 5F 48 36 30 37 32 5F 33 38 38 43
  00 00 00 00 00 00 00 00 00 00 00 00 00 00
AD Structures:
  [type=0x01 len=2] Flags: 06
  [type=0x09 len=17] Complete Name: 47 6F 76 65 65 5F 48 36 30 37 32 5F 33 38 38 43
  [type=0xFF len=8] Manufacturer Data: 02 88 EC 00 02 01 01
  [type=0x09 len=17] Complete Name: 47 6F 76 65 65 5F 48 36 30 37 32 5F 33 38 38 43


[18:14:17.087] Device: Oura Ring 4  [5F:F5:A0:2E:CB:FB]
RSSI: -51 dBm
Service UUIDs:
  98ed0001-a541-11e4-b6a0-0002a5d5c51b
Manufacturer Data:
  Company ID: 0x02B2 (690)
  Data (4 bytes): 04 60 49 01
Raw AD (62 bytes):
  02 01 05 11 06 1B C5 D5 A5 02 00 A0 B6 E4 11 41
  A5 01 00 ED 98 07 FF B2 02 04 60 49 01 0C 09 4F
  75 72 61 20 52 69 6E 67 20 34 00 00 00 00 00 00
  00 00 00 00 00 00 00 00 00 00 00 00 00 00
AD Structures:
  [type=0x01 len=2] Flags: 05
  [type=0x06 len=17] Incomplete 128-bit UUIDs: 1B C5 D5 A5 02 00 A0 B6 E4 11 41 A5 01 00 ED 98
  [type=0xFF len=7] Manufacturer Data: B2 02 04 60 49 01
  [type=0x09 len=12] Complete Name: 4F 75 72 61 20 52 69 6E 67 20 34


[18:14:17.088] Device: SugarPixel-Unten  [78:1C:3C:EF:A6:AE]
RSSI: -92 dBm
Raw AD (62 bytes):
  02 01 06 11 09 53 75 67 61 72 50 69 78 65 6C 2D
  55 6E 74 65 6E 00 00 00 00 00 00 00 00 00 00 00
  00 00 00 00 00 00 00 00 00 00 00 00 00 00 00 00
  00 00 00 00 00 00 00 00 00 00 00 00 00 00
AD Structures:
  [type=0x01 len=2] Flags: 06
  [type=0x09 len=17] Complete Name: 53 75 67 61 72 50 69 78 65 6C 2D 55 6E 74 65 6E


[18:14:18.386] Device: (no name)  [67:14:67:E2:29:69]
RSSI: -97 dBm
Manufacturer Data:
  Company ID: 0x004C (76)
  Data (9 bytes): 10 07 3D 1F 61 BA 69 35 58
Raw AD (62 bytes):
  02 01 1A 0C FF 4C 00 10 07 3D 1F 61 BA 69 35 58
  02 0A 00 00 00 00 00 00 00 00 00 00 00 00 00 00
  00 00 00 00 00 00 00 00 00 00 00 00 00 00 00 00
  00 00 00 00 00 00 00 00 00 00 00 00 00 00
AD Structures:
  [type=0x01 len=2] Flags: 1A
  [type=0xFF len=12] Manufacturer Data: 4C 00 10 07 3D 1F 61 BA 69 35 58
  [type=0x0A len=2] Type 10: 00


[18:14:21.328] Device: (no name)  [52:07:63:00:64:42]
RSSI: -90 dBm
Manufacturer Data:
  Company ID: 0x004C (76)
  Data (8 bytes): 10 06 35 1E A8 5F 8F 95
Raw AD (62 bytes):
  02 01 1A 02 0A 07 0B FF 4C 00 10 06 35 1E A8 5F
  8F 95 00 00 00 00 00 00 00 00 00 00 00 00 00 00
  00 00 00 00 00 00 00 00 00 00 00 00 00 00 00 00
  00 00 00 00 00 00 00 00 00 00 00 00 00 00
AD Structures:
  [type=0x01 len=2] Flags: 1A
  [type=0x0A len=2] Type 10: 07
  [type=0xFF len=11] Manufacturer Data: 4C 00 10 06 35 1E A8 5F 8F 95


[18:14:21.351] Device: (no name)  [5E:03:4B:5F:1B:27]
RSSI: -63 dBm
Manufacturer Data:
  Company ID: 0x004C (76)
  Data (8 bytes): 10 06 0C 1D F5 CB 98 78
Raw AD (62 bytes):
  02 01 1A 02 0A 0B 0B FF 4C 00 10 06 0C 1D F5 CB
  98 78 00 00 00 00 00 00 00 00 00 00 00 00 00 00
  00 00 00 00 00 00 00 00 00 00 00 00 00 00 00 00
  00 00 00 00 00 00 00 00 00 00 00 00 00 00
AD Structures:
  [type=0x01 len=2] Flags: 1A
  [type=0x0A len=2] Type 10: 0B
  [type=0xFF len=11] Manufacturer Data: 4C 00 10 06 0C 1D F5 CB 98 78


[18:14:22.817] Device: Govee_H6061_175A  [CD:38:30:33:17:5A]
RSSI: -95 dBm
Manufacturer Data:
  Company ID: 0x8803 (34819)
  Data (5 bytes): EC 00 01 03 01
Raw AD (62 bytes):
  02 01 06 11 09 47 6F 76 65 65 5F 48 36 30 36 31
  5F 31 37 35 41 08 FF 03 88 EC 00 01 03 01 11 09
  47 6F 76 65 65 5F 48 36 30 36 31 5F 31 37 35 41
  00 00 00 00 00 00 00 00 00 00 00 00 00 00
AD Structures:
  [type=0x01 len=2] Flags: 06
  [type=0x09 len=17] Complete Name: 47 6F 76 65 65 5F 48 36 30 36 31 5F 31 37 35 41
  [type=0xFF len=8] Manufacturer Data: 03 88 EC 00 01 03 01
  [type=0x09 len=17] Complete Name: 47 6F 76 65 65 5F 48 36 30 36 31 5F 31 37 35 41


[18:14:22.904] Device: GVH600D50FA  [0C:4E:A0:88:50:FA]
RSSI: -91 dBm
Manufacturer Data:
  Company ID: 0x8802 (34818)
  Data (6 bytes): EC 00 01 01 00 00
Raw AD (62 bytes):
  02 01 06 0C 09 47 56 48 36 30 30 44 35 30 46 41
  09 FF 02 88 EC 00 01 01 00 00 03 19 00 00 00 00
  00 00 00 00 00 00 00 00 00 00 00 00 00 00 00 00
  00 00 00 00 00 00 00 00 00 00 00 00 00 00
AD Structures:
  [type=0x01 len=2] Flags: 06
  [type=0x09 len=12] Complete Name: 47 56 48 36 30 30 44 35 30 46 41
  [type=0xFF len=9] Manufacturer Data: 02 88 EC 00 01 01 00 00
  [type=0x19 len=3] Type 25: 00 00


[18:14:22.906] Device: GVH600D833E  [A8:46:74:20:83:3E]
RSSI: -88 dBm
Manufacturer Data:
  Company ID: 0x8802 (34818)
  Data (6 bytes): EC 00 01 01 00 00
Raw AD (62 bytes):
  02 01 06 0C 09 47 56 48 36 30 30 44 38 33 33 45
  09 FF 02 88 EC 00 01 01 00 00 03 19 00 00 00 00
  00 00 00 00 00 00 00 00 00 00 00 00 00 00 00 00
  00 00 00 00 00 00 00 00 00 00 00 00 00 00
AD Structures:
  [type=0x01 len=2] Flags: 06
  [type=0x09 len=12] Complete Name: 47 56 48 36 30 30 44 38 33 33 45
  [type=0xFF len=9] Manufacturer Data: 02 88 EC 00 01 01 00 00
  [type=0x19 len=3] Type 25: 00 00


[18:14:25.430] Device: (no name)  [57:5A:1C:4C:92:CB]
RSSI: -96 dBm
Manufacturer Data:
  Company ID: 0x004C (76)
  Data (7 bytes): 10 05 16 18 45 23 5C
Raw AD (62 bytes):
  02 01 1A 02 0A 0C 0A FF 4C 00 10 05 16 18 45 23
  5C 00 00 00 00 00 00 00 00 00 00 00 00 00 00 00
  00 00 00 00 00 00 00 00 00 00 00 00 00 00 00 00
  00 00 00 00 00 00 00 00 00 00 00 00 00 00
AD Structures:
  [type=0x01 len=2] Flags: 1A
  [type=0x0A len=2] Type 10: 0C
  [type=0xFF len=10] Manufacturer Data: 4C 00 10 05 16 18 45 23 5C


[18:14:25.542] Device: (no name)  [4C:06:F5:A9:99:39]
RSSI: -90 dBm
Manufacturer Data:
  Company ID: 0x004C (76)
  Data (26 bytes): 10 07 36 1F 0B AC 92 DF 18 01 00 00 00 00 00 00
  00 00 00 00 00 00 80 00 00 00
Raw AD (62 bytes):
  02 01 1A 02 0A 0C 0C FF 4C 00 10 07 36 1F 0B AC
  92 DF 18 14 FF 4C 00 01 00 00 00 00 00 00 00 00
  00 00 00 00 80 00 00 00 00 00 00 00 00 00 00 00
  00 00 00 00 00 00 00 00 00 00 00 00 00 00
AD Structures:
  [type=0x01 len=2] Flags: 1A
  [type=0x0A len=2] Type 10: 0C
  [type=0xFF len=12] Manufacturer Data: 4C 00 10 07 36 1F 0B AC 92 DF 18
  [type=0xFF len=20] Manufacturer Data: 4C 00 01 00 00 00 00 00 00 00 00 00 00 00 00 80
  00 00 00


[18:14:26.813] Device: (no name)  [E3:CD:C8:1D:E7:09]
RSSI: -82 dBm
Manufacturer Data:
  Company ID: 0x004C (76)
  Data (4 bytes): 12 02 00 03
Raw AD (62 bytes):
  07 FF 4C 00 12 02 00 03 00 00 00 00 00 00 00 00
  00 00 00 00 00 00 00 00 00 00 00 00 00 00 00 00
  00 00 00 00 00 00 00 00 00 00 00 00 00 00 00 00
  00 00 00 00 00 00 00 00 00 00 00 00 00 00
AD Structures:
  [type=0xFF len=7] Manufacturer Data: 4C 00 12 02 00 03


[18:14:26.825] Device: (no name)  [C9:16:26:61:E1:31]
RSSI: -94 dBm
Manufacturer Data:
  Company ID: 0x004C (76)
  Data (4 bytes): 12 02 00 02
Raw AD (62 bytes):
  07 FF 4C 00 12 02 00 02 00 00 00 00 00 00 00 00
  00 00 00 00 00 00 00 00 00 00 00 00 00 00 00 00
  00 00 00 00 00 00 00 00 00 00 00 00 00 00 00 00
  00 00 00 00 00 00 00 00 00 00 00 00 00 00
AD Structures:
  [type=0xFF len=7] Manufacturer Data: 4C 00 12 02 00 02


[18:14:26.934] Device: (no name)  [F0:E9:72:9C:6F:F5]
RSSI: -98 dBm
Manufacturer Data:
  Company ID: 0x004C (76)
  Data (4 bytes): 12 02 00 02
Raw AD (62 bytes):
  07 FF 4C 00 12 02 00 02 00 00 00 00 00 00 00 00
  00 00 00 00 00 00 00 00 00 00 00 00 00 00 00 00
  00 00 00 00 00 00 00 00 00 00 00 00 00 00 00 00
  00 00 00 00 00 00 00 00 00 00 00 00 00 00
AD Structures:
  [type=0xFF len=7] Manufacturer Data: 4C 00 12 02 00 02


[18:14:28.158] Device: (no name)  [80:47:86:87:E9:AD]
RSSI: -87 dBm
Manufacturer Data:
  Company ID: 0x0075 (117)
  Data (24 bytes): 42 04 01 80 66 80 47 86 87 E9 AD 82 47 86 87 E9
  AC 01 94 00 00 00 00 00
Raw AD (62 bytes):
  1B FF 75 00 42 04 01 80 66 80 47 86 87 E9 AD 82
  47 86 87 E9 AC 01 94 00 00 00 00 00 00 00 00 00
  00 00 00 00 00 00 00 00 00 00 00 00 00 00 00 00
  00 00 00 00 00 00 00 00 00 00 00 00 00 00
AD Structures:
  [type=0xFF len=27] Manufacturer Data: 75 00 42 04 01 80 66 80 47 86 87 E9 AD 82 47 86
  87 E9 AC 01 94 00 00 00 00 00


[18:14:28.246] Device: (no name)  [E5:CA:0F:C0:57:57]
RSSI: -80 dBm
Manufacturer Data:
  Company ID: 0x004C (76)
  Data (4 bytes): 12 02 00 03
Raw AD (62 bytes):
  07 FF 4C 00 12 02 00 03 00 00 00 00 00 00 00 00
  00 00 00 00 00 00 00 00 00 00 00 00 00 00 00 00
  00 00 00 00 00 00 00 00 00 00 00 00 00 00 00 00
  00 00 00 00 00 00 00 00 00 00 00 00 00 00
AD Structures:
  [type=0xFF len=7] Manufacturer Data: 4C 00 12 02 00 03


[18:14:29.634] Device: (no name)  [78:DB:78:D1:93:3A]
RSSI: -96 dBm
Manufacturer Data:
  Company ID: 0x004C (76)
  Data (16 bytes): 09 08 13 5B C0 A8 B2 24 1B 58 0A 04 12 96 E5 C0
Raw AD (62 bytes):
  02 01 1A 13 FF 4C 00 09 08 13 5B C0 A8 B2 24 1B
  58 0A 04 12 96 E5 C0 00 00 00 00 00 00 00 00 00
  00 00 00 00 00 00 00 00 00 00 00 00 00 00 00 00
  00 00 00 00 00 00 00 00 00 00 00 00 00 00
AD Structures:
  [type=0x01 len=2] Flags: 1A
  [type=0xFF len=19] Manufacturer Data: 4C 00 09 08 13 5B C0 A8 B2 24 1B 58 0A 04 12 96
  E5 C0


[18:14:29.744] Device: Plaud Note Pro  [51:CA:FC:FE:76:58]
RSSI: -92 dBm
Manufacturer Data:
  Company ID: 0x005D (93)
  Data (27 bytes): 02 71 03 04 56 07 04 01 08 88 10 B3 02 54 58 91
  19 44 14 00 04 CF 79 57 1E 01 01
Raw AD (62 bytes):
  1E FF 5D 00 02 71 03 04 56 07 04 01 08 88 10 B3
  02 54 58 91 19 44 14 00 04 CF 79 57 1E 01 01 0F
  09 50 6C 61 75 64 20 4E 6F 74 65 20 50 72 6F 00
  00 00 00 00 00 00 00 00 00 00 00 00 00 00
AD Structures:
  [type=0xFF len=30] Manufacturer Data: 5D 00 02 71 03 04 56 07 04 01 08 88 10 B3 02 54
  58 91 19 44 14 00 04 CF 79 57 1E 01 01
  [type=0x09 len=15] Complete Name: 50 6C 61 75 64 20 4E 6F 74 65 20 50 72 6F



=== Scan ended Fri Apr 03 18:14:29 GMT+02:00 2026 ===
